FoamFile {
    version 2.0;
    class dictionary;
    object decomposeParDict;
    format ascii;
}

numberOfSubdomains 5;

method          scotch;
